# WEL package for  SEAWAT, generated by Flopy.
      2501        53 
      2501         0 # stress period 1
         1         1         1         0.22808
         2         1         1         0.22808
         3         1         1         0.22808
         4         1         1         0.22808
         5         1         1         0.22808
         6         1         1         0.22808
         7         1         1         0.22808
         8         1         1         0.22808
         9         1         1         0.22808
        10         1         1         0.22808
        11         1         1         0.22808
        12         1         1         0.22808
        13         1         1         0.22808
        14         1         1         0.22808
        15         1         1         0.22808
        16         1         1         0.22808
        17         1         1         0.22808
        18         1         1         0.22808
        19         1         1         0.22808
        20         1         1         0.22808
        21         1         1         0.22808
        22         1         1         0.22808
        23         1         1         0.22808
        24         1         1         0.22808
        25         1         1         0.22808
         1         2         1         0.22808
         2         2         1         0.22808
         3         2         1         0.22808
         4         2         1         0.22808
         5         2         1         0.22808
         6         2         1         0.22808
         7         2         1         0.22808
         8         2         1         0.22808
         9         2         1         0.22808
        10         2         1         0.22808
        11         2         1         0.22808
        12         2         1         0.22808
        13         2         1         0.22808
        14         2         1         0.22808
        15         2         1         0.22808
        16         2         1         0.22808
        17         2         1         0.22808
        18         2         1         0.22808
        19         2         1         0.22808
        20         2         1         0.22808
        21         2         1         0.22808
        22         2         1         0.22808
        23         2         1         0.22808
        24         2         1         0.22808
        25         2         1         0.22808
         1         3         1         0.22808
         2         3         1         0.22808
         3         3         1         0.22808
         4         3         1         0.22808
         5         3         1         0.22808
         6         3         1         0.22808
         7         3         1         0.22808
         8         3         1         0.22808
         9         3         1         0.22808
        10         3         1         0.22808
        11         3         1         0.22808
        12         3         1         0.22808
        13         3         1         0.22808
        14         3         1         0.22808
        15         3         1         0.22808
        16         3         1         0.22808
        17         3         1         0.22808
        18         3         1         0.22808
        19         3         1         0.22808
        20         3         1         0.22808
        21         3         1         0.22808
        22         3         1         0.22808
        23         3         1         0.22808
        24         3         1         0.22808
        25         3         1         0.22808
         1         4         1         0.22808
         2         4         1         0.22808
         3         4         1         0.22808
         4         4         1         0.22808
         5         4         1         0.22808
         6         4         1         0.22808
         7         4         1         0.22808
         8         4         1         0.22808
         9         4         1         0.22808
        10         4         1         0.22808
        11         4         1         0.22808
        12         4         1         0.22808
        13         4         1         0.22808
        14         4         1         0.22808
        15         4         1         0.22808
        16         4         1         0.22808
        17         4         1         0.22808
        18         4         1         0.22808
        19         4         1         0.22808
        20         4         1         0.22808
        21         4         1         0.22808
        22         4         1         0.22808
        23         4         1         0.22808
        24         4         1         0.22808
        25         4         1         0.22808
         1         5         1         0.22808
         2         5         1         0.22808
         3         5         1         0.22808
         4         5         1         0.22808
         5         5         1         0.22808
         6         5         1         0.22808
         7         5         1         0.22808
         8         5         1         0.22808
         9         5         1         0.22808
        10         5         1         0.22808
        11         5         1         0.22808
        12         5         1         0.22808
        13         5         1         0.22808
        14         5         1         0.22808
        15         5         1         0.22808
        16         5         1         0.22808
        17         5         1         0.22808
        18         5         1         0.22808
        19         5         1         0.22808
        20         5         1         0.22808
        21         5         1         0.22808
        22         5         1         0.22808
        23         5         1         0.22808
        24         5         1         0.22808
        25         5         1         0.22808
         1         6         1         0.22808
         2         6         1         0.22808
         3         6         1         0.22808
         4         6         1         0.22808
         5         6         1         0.22808
         6         6         1         0.22808
         7         6         1         0.22808
         8         6         1         0.22808
         9         6         1         0.22808
        10         6         1         0.22808
        11         6         1         0.22808
        12         6         1         0.22808
        13         6         1         0.22808
        14         6         1         0.22808
        15         6         1         0.22808
        16         6         1         0.22808
        17         6         1         0.22808
        18         6         1         0.22808
        19         6         1         0.22808
        20         6         1         0.22808
        21         6         1         0.22808
        22         6         1         0.22808
        23         6         1         0.22808
        24         6         1         0.22808
        25         6         1         0.22808
         1         7         1         0.22808
         2         7         1         0.22808
         3         7         1         0.22808
         4         7         1         0.22808
         5         7         1         0.22808
         6         7         1         0.22808
         7         7         1         0.22808
         8         7         1         0.22808
         9         7         1         0.22808
        10         7         1         0.22808
        11         7         1         0.22808
        12         7         1         0.22808
        13         7         1         0.22808
        14         7         1         0.22808
        15         7         1         0.22808
        16         7         1         0.22808
        17         7         1         0.22808
        18         7         1         0.22808
        19         7         1         0.22808
        20         7         1         0.22808
        21         7         1         0.22808
        22         7         1         0.22808
        23         7         1         0.22808
        24         7         1         0.22808
        25         7         1         0.22808
         1         8         1         0.22808
         2         8         1         0.22808
         3         8         1         0.22808
         4         8         1         0.22808
         5         8         1         0.22808
         6         8         1         0.22808
         7         8         1         0.22808
         8         8         1         0.22808
         9         8         1         0.22808
        10         8         1         0.22808
        11         8         1         0.22808
        12         8         1         0.22808
        13         8         1         0.22808
        14         8         1         0.22808
        15         8         1         0.22808
        16         8         1         0.22808
        17         8         1         0.22808
        18         8         1         0.22808
        19         8         1         0.22808
        20         8         1         0.22808
        21         8         1         0.22808
        22         8         1         0.22808
        23         8         1         0.22808
        24         8         1         0.22808
        25         8         1         0.22808
         1         9         1         0.22808
         2         9         1         0.22808
         3         9         1         0.22808
         4         9         1         0.22808
         5         9         1         0.22808
         6         9         1         0.22808
         7         9         1         0.22808
         8         9         1         0.22808
         9         9         1         0.22808
        10         9         1         0.22808
        11         9         1         0.22808
        12         9         1         0.22808
        13         9         1         0.22808
        14         9         1         0.22808
        15         9         1         0.22808
        16         9         1         0.22808
        17         9         1         0.22808
        18         9         1         0.22808
        19         9         1         0.22808
        20         9         1         0.22808
        21         9         1         0.22808
        22         9         1         0.22808
        23         9         1         0.22808
        24         9         1         0.22808
        25         9         1         0.22808
         1        10         1         0.22808
         2        10         1         0.22808
         3        10         1         0.22808
         4        10         1         0.22808
         5        10         1         0.22808
         6        10         1         0.22808
         7        10         1         0.22808
         8        10         1         0.22808
         9        10         1         0.22808
        10        10         1         0.22808
        11        10         1         0.22808
        12        10         1         0.22808
        13        10         1         0.22808
        14        10         1         0.22808
        15        10         1         0.22808
        16        10         1         0.22808
        17        10         1         0.22808
        18        10         1         0.22808
        19        10         1         0.22808
        20        10         1         0.22808
        21        10         1         0.22808
        22        10         1         0.22808
        23        10         1         0.22808
        24        10         1         0.22808
        25        10         1         0.22808
         1        11         1         0.22808
         2        11         1         0.22808
         3        11         1         0.22808
         4        11         1         0.22808
         5        11         1         0.22808
         6        11         1         0.22808
         7        11         1         0.22808
         8        11         1         0.22808
         9        11         1         0.22808
        10        11         1         0.22808
        11        11         1         0.22808
        12        11         1         0.22808
        13        11         1         0.22808
        14        11         1         0.22808
        15        11         1         0.22808
        16        11         1         0.22808
        17        11         1         0.22808
        18        11         1         0.22808
        19        11         1         0.22808
        20        11         1         0.22808
        21        11         1         0.22808
        22        11         1         0.22808
        23        11         1         0.22808
        24        11         1         0.22808
        25        11         1         0.22808
         1        12         1         0.22808
         2        12         1         0.22808
         3        12         1         0.22808
         4        12         1         0.22808
         5        12         1         0.22808
         6        12         1         0.22808
         7        12         1         0.22808
         8        12         1         0.22808
         9        12         1         0.22808
        10        12         1         0.22808
        11        12         1         0.22808
        12        12         1         0.22808
        13        12         1         0.22808
        14        12         1         0.22808
        15        12         1         0.22808
        16        12         1         0.22808
        17        12         1         0.22808
        18        12         1         0.22808
        19        12         1         0.22808
        20        12         1         0.22808
        21        12         1         0.22808
        22        12         1         0.22808
        23        12         1         0.22808
        24        12         1         0.22808
        25        12         1         0.22808
         1        13         1         0.22808
         2        13         1         0.22808
         3        13         1         0.22808
         4        13         1         0.22808
         5        13         1         0.22808
         6        13         1         0.22808
         7        13         1         0.22808
         8        13         1         0.22808
         9        13         1         0.22808
        10        13         1         0.22808
        11        13         1         0.22808
        12        13         1         0.22808
        13        13         1         0.22808
        14        13         1         0.22808
        15        13         1         0.22808
        16        13         1         0.22808
        17        13         1         0.22808
        18        13         1         0.22808
        19        13         1         0.22808
        20        13         1         0.22808
        21        13         1         0.22808
        22        13         1         0.22808
        23        13         1         0.22808
        24        13         1         0.22808
        25        13         1         0.22808
         1        14         1         0.22808
         2        14         1         0.22808
         3        14         1         0.22808
         4        14         1         0.22808
         5        14         1         0.22808
         6        14         1         0.22808
         7        14         1         0.22808
         8        14         1         0.22808
         9        14         1         0.22808
        10        14         1         0.22808
        11        14         1         0.22808
        12        14         1         0.22808
        13        14         1         0.22808
        14        14         1         0.22808
        15        14         1         0.22808
        16        14         1         0.22808
        17        14         1         0.22808
        18        14         1         0.22808
        19        14         1         0.22808
        20        14         1         0.22808
        21        14         1         0.22808
        22        14         1         0.22808
        23        14         1         0.22808
        24        14         1         0.22808
        25        14         1         0.22808
         1        15         1         0.22808
         2        15         1         0.22808
         3        15         1         0.22808
         4        15         1         0.22808
         5        15         1         0.22808
         6        15         1         0.22808
         7        15         1         0.22808
         8        15         1         0.22808
         9        15         1         0.22808
        10        15         1         0.22808
        11        15         1         0.22808
        12        15         1         0.22808
        13        15         1         0.22808
        14        15         1         0.22808
        15        15         1         0.22808
        16        15         1         0.22808
        17        15         1         0.22808
        18        15         1         0.22808
        19        15         1         0.22808
        20        15         1         0.22808
        21        15         1         0.22808
        22        15         1         0.22808
        23        15         1         0.22808
        24        15         1         0.22808
        25        15         1         0.22808
         1        16         1         0.22808
         2        16         1         0.22808
         3        16         1         0.22808
         4        16         1         0.22808
         5        16         1         0.22808
         6        16         1         0.22808
         7        16         1         0.22808
         8        16         1         0.22808
         9        16         1         0.22808
        10        16         1         0.22808
        11        16         1         0.22808
        12        16         1         0.22808
        13        16         1         0.22808
        14        16         1         0.22808
        15        16         1         0.22808
        16        16         1         0.22808
        17        16         1         0.22808
        18        16         1         0.22808
        19        16         1         0.22808
        20        16         1         0.22808
        21        16         1         0.22808
        22        16         1         0.22808
        23        16         1         0.22808
        24        16         1         0.22808
        25        16         1         0.22808
         1        17         1         0.22808
         2        17         1         0.22808
         3        17         1         0.22808
         4        17         1         0.22808
         5        17         1         0.22808
         6        17         1         0.22808
         7        17         1         0.22808
         8        17         1         0.22808
         9        17         1         0.22808
        10        17         1         0.22808
        11        17         1         0.22808
        12        17         1         0.22808
        13        17         1         0.22808
        14        17         1         0.22808
        15        17         1         0.22808
        16        17         1         0.22808
        17        17         1         0.22808
        18        17         1         0.22808
        19        17         1         0.22808
        20        17         1         0.22808
        21        17         1         0.22808
        22        17         1         0.22808
        23        17         1         0.22808
        24        17         1         0.22808
        25        17         1         0.22808
         1        18         1         0.22808
         2        18         1         0.22808
         3        18         1         0.22808
         4        18         1         0.22808
         5        18         1         0.22808
         6        18         1         0.22808
         7        18         1         0.22808
         8        18         1         0.22808
         9        18         1         0.22808
        10        18         1         0.22808
        11        18         1         0.22808
        12        18         1         0.22808
        13        18         1         0.22808
        14        18         1         0.22808
        15        18         1         0.22808
        16        18         1         0.22808
        17        18         1         0.22808
        18        18         1         0.22808
        19        18         1         0.22808
        20        18         1         0.22808
        21        18         1         0.22808
        22        18         1         0.22808
        23        18         1         0.22808
        24        18         1         0.22808
        25        18         1         0.22808
         1        19         1         0.22808
         2        19         1         0.22808
         3        19         1         0.22808
         4        19         1         0.22808
         5        19         1         0.22808
         6        19         1         0.22808
         7        19         1         0.22808
         8        19         1         0.22808
         9        19         1         0.22808
        10        19         1         0.22808
        11        19         1         0.22808
        12        19         1         0.22808
        13        19         1         0.22808
        14        19         1         0.22808
        15        19         1         0.22808
        16        19         1         0.22808
        17        19         1         0.22808
        18        19         1         0.22808
        19        19         1         0.22808
        20        19         1         0.22808
        21        19         1         0.22808
        22        19         1         0.22808
        23        19         1         0.22808
        24        19         1         0.22808
        25        19         1         0.22808
         1        20         1         0.22808
         2        20         1         0.22808
         3        20         1         0.22808
         4        20         1         0.22808
         5        20         1         0.22808
         6        20         1         0.22808
         7        20         1         0.22808
         8        20         1         0.22808
         9        20         1         0.22808
        10        20         1         0.22808
        11        20         1         0.22808
        12        20         1         0.22808
        13        20         1         0.22808
        14        20         1         0.22808
        15        20         1         0.22808
        16        20         1         0.22808
        17        20         1         0.22808
        18        20         1         0.22808
        19        20         1         0.22808
        20        20         1         0.22808
        21        20         1         0.22808
        22        20         1         0.22808
        23        20         1         0.22808
        24        20         1         0.22808
        25        20         1         0.22808
         1        21         1         0.22808
         2        21         1         0.22808
         3        21         1         0.22808
         4        21         1         0.22808
         5        21         1         0.22808
         6        21         1         0.22808
         7        21         1         0.22808
         8        21         1         0.22808
         9        21         1         0.22808
        10        21         1         0.22808
        11        21         1         0.22808
        12        21         1         0.22808
        13        21         1         0.22808
        14        21         1         0.22808
        15        21         1         0.22808
        16        21         1         0.22808
        17        21         1         0.22808
        18        21         1         0.22808
        19        21         1         0.22808
        20        21         1         0.22808
        21        21         1         0.22808
        22        21         1         0.22808
        23        21         1         0.22808
        24        21         1         0.22808
        25        21         1         0.22808
         1        22         1         0.22808
         2        22         1         0.22808
         3        22         1         0.22808
         4        22         1         0.22808
         5        22         1         0.22808
         6        22         1         0.22808
         7        22         1         0.22808
         8        22         1         0.22808
         9        22         1         0.22808
        10        22         1         0.22808
        11        22         1         0.22808
        12        22         1         0.22808
        13        22         1         0.22808
        14        22         1         0.22808
        15        22         1         0.22808
        16        22         1         0.22808
        17        22         1         0.22808
        18        22         1         0.22808
        19        22         1         0.22808
        20        22         1         0.22808
        21        22         1         0.22808
        22        22         1         0.22808
        23        22         1         0.22808
        24        22         1         0.22808
        25        22         1         0.22808
         1        23         1         0.22808
         2        23         1         0.22808
         3        23         1         0.22808
         4        23         1         0.22808
         5        23         1         0.22808
         6        23         1         0.22808
         7        23         1         0.22808
         8        23         1         0.22808
         9        23         1         0.22808
        10        23         1         0.22808
        11        23         1         0.22808
        12        23         1         0.22808
        13        23         1         0.22808
        14        23         1         0.22808
        15        23         1         0.22808
        16        23         1         0.22808
        17        23         1         0.22808
        18        23         1         0.22808
        19        23         1         0.22808
        20        23         1         0.22808
        21        23         1         0.22808
        22        23         1         0.22808
        23        23         1         0.22808
        24        23         1         0.22808
        25        23         1         0.22808
         1        24         1         0.22808
         2        24         1         0.22808
         3        24         1         0.22808
         4        24         1         0.22808
         5        24         1         0.22808
         6        24         1         0.22808
         7        24         1         0.22808
         8        24         1         0.22808
         9        24         1         0.22808
        10        24         1         0.22808
        11        24         1         0.22808
        12        24         1         0.22808
        13        24         1         0.22808
        14        24         1         0.22808
        15        24         1         0.22808
        16        24         1         0.22808
        17        24         1         0.22808
        18        24         1         0.22808
        19        24         1         0.22808
        20        24         1         0.22808
        21        24         1         0.22808
        22        24         1         0.22808
        23        24         1         0.22808
        24        24         1         0.22808
        25        24         1         0.22808
         1        25         1         0.22808
         2        25         1         0.22808
         3        25         1         0.22808
         4        25         1         0.22808
         5        25         1         0.22808
         6        25         1         0.22808
         7        25         1         0.22808
         8        25         1         0.22808
         9        25         1         0.22808
        10        25         1         0.22808
        11        25         1         0.22808
        12        25         1         0.22808
        13        25         1         0.22808
        14        25         1         0.22808
        15        25         1         0.22808
        16        25         1         0.22808
        17        25         1         0.22808
        18        25         1         0.22808
        19        25         1         0.22808
        20        25         1         0.22808
        21        25         1         0.22808
        22        25         1         0.22808
        23        25         1         0.22808
        24        25         1         0.22808
        25        25         1         0.22808
         1        26         1         0.22808
         2        26         1         0.22808
         3        26         1         0.22808
         4        26         1         0.22808
         5        26         1         0.22808
         6        26         1         0.22808
         7        26         1         0.22808
         8        26         1         0.22808
         9        26         1         0.22808
        10        26         1         0.22808
        11        26         1         0.22808