# WEL package for  SEAWAT, generated by Flopy.
       100        53 
       100         0 # stress period 1
         1         1         1           5.072
         1        36         4          -2.536
         2         1         1           5.072
         2        36         4          -2.536
         3         1         1           5.072
         3        36         4          -2.536
         4         1         1           5.072
         4        36         4          -2.536
         5         1         1           5.072
         5        36         4          -2.536
         6         1         1           5.072
         6        36         4          -2.536
         7         1         1           5.072
         7        36         4          -2.536
         8         1         1           5.072
         8        36         4          -2.536
         9         1         1           5.072
         9        36         4          -2.536
        10         1         1           5.072
        10        36         4          -2.536
         1         1         2           5.072
         1        36         4          -2.536
         2         1         2           5.072
         2        36         4          -2.536
         3         1         2           5.072
         3        36         4          -2.536
         4         1         2           5.072
         4        36         4          -2.536
         5         1         2           5.072
         5        36         4          -2.536
         6         1         2           5.072
         6        36         4          -2.536
         7         1         2           5.072
         7        36         4          -2.536
         8         1         2           5.072
         8        36         4          -2.536
         9         1         2           5.072
         9        36         4          -2.536
        10         1         2           5.072
        10        36         4          -2.536
         1         1         3           5.072
         1        36         4          -2.536
         2         1         3           5.072
         2        36         4          -2.536
         3         1         3           5.072
         3        36         4          -2.536
         4         1         3           5.072
         4        36         4          -2.536
         5         1         3           5.072
         5        36         4          -2.536
         6         1         3           5.072
         6        36         4          -2.536
         7         1         3           5.072
         7        36         4          -2.536
         8         1         3           5.072
         8        36         4          -2.536
         9         1         3           5.072
         9        36         4          -2.536
        10         1         3           5.072
        10        36         4          -2.536
         1         1         4           5.072
         1        36         4          -2.536
         2         1         4           5.072
         2        36         4          -2.536
         3         1         4           5.072
         3        36         4          -2.536
         4         1         4           5.072
         4        36         4          -2.536
         5         1         4           5.072
         5        36         4          -2.536
         6         1         4           5.072
         6        36         4          -2.536
         7         1         4           5.072
         7        36         4          -2.536
         8         1         4           5.072
         8        36         4          -2.536
         9         1         4           5.072
         9        36         4          -2.536
        10         1         4           5.072
        10        36         4          -2.536
         1         1         5           5.072
         1        36         4          -2.536
         2         1         5           5.072
         2        36         4          -2.536
         3         1         5           5.072
         3        36         4          -2.536
         4         1         5           5.072
         4        36         4          -2.536
         5         1         5           5.072
         5        36         4          -2.536
         6         1         5           5.072
         6        36         4          -2.536
         7         1         5           5.072
         7        36         4          -2.536
         8         1         5           5.072
         8        36         4          -2.536
         9         1         5           5.072
         9        36         4          -2.536
        10         1         5           5.072
        10        36         4          -2.536
