# DIS package for  SEAWAT, generated by Flopy.
        10        50         5         1         4         2
  0  0  0  0  0  0  0  0  0  0
         0        20                           -1 #delr
         0        10                           -1 #delc
         0         1                           -1 #model_top
         0        -4                           -1 #botm layer 1
         0        -9                           -1 #botm layer 2
         0       -14                           -1 #botm layer 3
         0       -19                           -1 #botm layer 4
         0       -24                           -1 #botm layer 5
         0       -29                           -1 #botm layer 6
         0       -34                           -1 #botm layer 7
         0       -39                           -1 #botm layer 8
         0       -44                           -1 #botm layer 9
         0       -49                           -1 #botm layer 10
     50.000000            50  1.000000  SS 
