# LPF package for  SEAWAT, generated by Flopy.
        53    -1E+30         0  
         0         0         0         0         0         0         0         0         0         0
         0         0         0         0         0         0         0         0         0         0
   1.000000E+00   1.000000E+00   1.000000E+00   1.000000E+00   1.000000E+00   1.000000E+00   1.000000E+00   1.000000E+00   1.000000E+00   1.000000E+00
         0         0         0         0         0         0         0         0         0         0
         0         0         0         0         0         0         0         0         0         0
         0       864                           -1 #hk layer 1
         0       864                           -1 #vka1
         0       864                           -1 #hk layer 2
         0       864                           -1 #vka2
         0       864                           -1 #hk layer 3
         0       864                           -1 #vka3
         0       864                           -1 #hk layer 4
         0       864                           -1 #vka4
         0       864                           -1 #hk layer 5
         0       864                           -1 #vka5
         0       864                           -1 #hk layer 6
         0       864                           -1 #vka6
         0       864                           -1 #hk layer 7
         0       864                           -1 #vka7
         0       864                           -1 #hk layer 8
         0       864                           -1 #vka8
         0       864                           -1 #hk layer 9
         0       864                           -1 #vka9
         0       864                           -1 #hk layer 10
         0       864                           -1 #vka10
