# BAS6 package for  SEAWAT, generated by Flopy.
FREE
        13         1             (5I10)        -1 #ibound layer 1
         1         1         1         1         1
         1         1         1         1         1
         1         1         1         1         1
         1         1         1         1         1
         1         1         1         1         1
         1         1         1         1         1
         1         1         1         1         1
         1         1         1         1         1
         1         1         1         1         1
         1         1         1         1         1
         1         1         1         1         1
         1         1         1         1         1
         1         1         1         1         1
         1         1         1         1         1
         1         1         1         1         1
         1         1         1         1         1
         1         1         1         1         1
         1         1         1         1         1
         1         1         1         1         1
         1         1         1         1         1
         1         1         1         1         1
         1         1         1         1         1
         1         1         1         1         1
         1         1         1         1         1
         1         1         1         1         1
         1         1         1         1         1
         1         1         1         1         1
         1         1         1         1         1
         1         1         1         1         1
         1         1         1         1         1
         1         1         1         1         1
         1         1         1         1         1
         1         1         1         1         1
         1         1         1         1         1
         1         1         1         1         1
         1         1         1         1         1
         1         1         1         1         1
         1         1         1         1         1
         1         1         1         1         1
         1         1         1         1         1
         1         1         1         1         1
         1         1         1         1         1
         1         1         1         1         1
         1         1         1         1         1
         1         1         1         1         1
         1         1         1         1         1
         1         1         1         1         1
         1         1         1         1         1
         1         1         1         1         1
        -1        -1        -1        -1        -1
        13         1             (5I10)        -1 #ibound layer 2
         1         1         1         1         1
         1         1         1         1         1
         1         1         1         1         1
         1         1         1         1         1
         1         1         1         1         1
         1         1         1         1         1
         1         1         1         1         1
         1         1         1         1         1
         1         1         1         1         1
         1         1         1         1         1
         1         1         1         1         1
         1         1         1         1         1
         1         1         1         1         1
         1         1         1         1         1
         1         1         1         1         1
         1         1         1         1         1
         1         1         1         1         1
         1         1         1         1         1
         1         1         1         1         1
         1         1         1         1         1
         1         1         1         1         1
         1         1         1         1         1
         1         1         1         1         1
         1         1         1         1         1
         1         1         1         1         1
         1         1         1         1         1
         1         1         1         1         1
         1         1         1         1         1
         1         1         1         1         1
         1         1         1         1         1
         1         1         1         1         1
         1         1         1         1         1
         1         1         1         1         1
         1         1         1         1         1
         1         1         1         1         1
         1         1         1         1         1
         1         1         1         1         1
         1         1         1         1         1
         1         1         1         1         1
         1         1         1         1         1
         1         1         1         1         1
         1         1         1         1         1
         1         1         1         1         1
         1         1         1         1         1
         1         1         1         1         1
         1         1         1         1         1
         1         1         1         1         1
         1         1         1         1         1
         1         1         1         1         1
        -1        -1        -1        -1        -1
        13         1             (5I10)        -1 #ibound layer 3
         1         1         1         1         1
         1         1         1         1         1
         1         1         1         1         1
         1         1         1         1         1
         1         1         1         1         1
         1         1         1         1         1
         1         1         1         1         1
         1         1         1         1         1
         1         1         1         1         1
         1         1         1         1         1
         1         1         1         1         1
         1         1         1         1         1
         1         1         1         1         1
         1         1         1         1         1
         1         1         1         1         1
         1         1         1         1         1
         1         1         1         1         1
         1         1         1         1         1
         1         1         1         1         1
         1         1         1         1         1
         1         1         1         1         1
         1         1         1         1         1
         1         1         1         1         1
         1         1         1         1         1
         1         1         1         1         1
         1         1         1         1         1
         1         1         1         1         1
         1         1         1         1         1
         1         1         1         1         1
         1         1         1         1         1
         1         1         1         1         1
         1         1         1         1         1
         1         1         1         1         1
         1         1         1         1         1
         1         1         1         1         1
         1         1         1         1         1
         1         1         1         1         1
         1         1         1         1         1
         1         1         1         1         1
         1         1         1         1         1
         1         1         1         1         1
         1         1         1         1         1
         1         1         1         1         1
         1         1         1         1         1
         1         1         1         1         1
         1         1         1         1         1
         1         1         1         1         1
         1         1         1         1         1
         1         1         1         1         1
        -1        -1        -1        -1        -1
        13         1             (5I10)        -1 #ibound layer 4
         1         1         1         1         1
         1         1         1         1         1
         1         1         1         1         1
         1         1         1         1         1
         1         1         1         1         1
         1         1         1         1         1
         1         1         1         1         1
         1         1         1         1         1
         1         1         1         1         1
         1         1         1         1         1
         1         1         1         1         1
         1         1         1         1         1
         1         1         1         1         1
         1         1         1         1         1
         1         1         1         1         1
         1         1         1         1         1
         1         1         1         1         1
         1         1         1         1         1
         1         1         1         1         1
         1         1         1         1         1
         1         1         1         1         1
         1         1         1         1         1
         1         1         1         1         1
         1         1         1         1         1
         1         1         1         1         1
         1         1         1         1         1
         1         1         1         1         1
         1         1         1         1         1
         1         1         1         1         1
         1         1         1         1         1
         1         1         1         1         1
         1         1         1         1         1
         1         1         1         1         1
         1         1         1         1         1
         1         1         1         1         1
         1         1         1         1         1
         1         1         1         1         1
         1         1         1         1         1
         1         1         1         1         1
         1         1         1         1         1
         1         1         1         1         1
         1         1         1         1         1
         1         1         1         1         1
         1         1         1         1         1
         1         1         1         1         1
         1         1         1         1         1
         1         1         1         1         1
         1         1         1         1         1
         1         1         1         1         1
        -1        -1        -1        -1        -1
        13         1             (5I10)        -1 #ibound layer 5
         1         1         1         1         1
         1         1         1         1         1
         1         1         1         1         1
         1         1         1         1         1
         1         1         1         1         1
         1         1         1         1         1
         1         1         1         1         1
         1         1         1         1         1
         1         1         1         1         1
         1         1         1         1         1
         1         1         1         1         1
         1         1         1         1         1
         1         1         1         1         1
         1         1         1         1         1
         1         1         1         1         1
         1         1         1         1         1
         1         1         1         1         1
         1         1         1         1         1
         1         1         1         1         1
         1         1         1         1         1
         1         1         1         1         1
         1         1         1         1         1
         1         1         1         1         1
         1         1         1         1         1
         1         1         1         1         1
         1         1         1         1         1
         1         1         1         1         1
         1         1         1         1         1
         1         1         1         1         1
         1         1         1         1         1
         1         1         1         1         1
         1         1         1         1         1
         1         1         1         1         1
         1         1         1         1         1
         1         1         1         1         1
         1         1         1         1         1
         1         1         1         1         1
         1         1         1         1         1
         1         1         1         1         1
         1         1         1         1         1
         1         1         1         1         1
         1         1         1         1         1
         1         1         1         1         1
         1         1         1         1         1
         1         1         1         1         1
         1         1         1         1         1
         1         1         1         1         1
         1         1         1         1         1
         1         1         1         1         1
        -1        -1        -1        -1        -1
        13         1             (5I10)        -1 #ibound layer 6
         1         1         1         1         1
         1         1         1         1         1
         1         1         1         1         1
         1         1         1         1         1
         1         1         1         1         1
         1         1         1         1         1
         1         1         1         1         1
         1         1         1         1         1
         1         1         1         1         1
         1         1         1         1         1
         1         1         1         1         1
         1         1         1         1         1
         1         1         1         1         1
         1         1         1         1         1
         1         1         1         1         1
         1         1         1         1         1
         1         1         1         1         1
         1         1         1         1         1
         1         1         1         1         1
         1         1         1         1         1
         1         1         1         1         1
         1         1         1         1         1
         1         1         1         1         1
         1         1         1         1         1
         1         1         1         1         1
         1         1         1         1         1
         1         1         1         1         1
         1         1         1         1         1
         1         1         1         1         1
         1         1         1         1         1
         1         1         1         1         1
         1         1         1         1         1
         1         1         1         1         1
         1         1         1         1         1
         1         1         1         1         1
         1         1         1         1         1
         1         1         1         1         1
         1         1         1         1         1
         1         1         1         1         1
         1         1         1         1         1
         1         1         1         1         1
         1         1         1         1         1
         1         1         1         1         1
         1         1         1         1         1
         1         1         1         1         1
         1         1         1         1         1
         1         1         1         1         1
         1         1         1         1         1
         1         1         1         1         1
        -1        -1        -1        -1        -1
        13         1             (5I10)        -1 #ibound layer 7
         1         1         1         1         1
         1         1         1         1         1
         1         1         1         1         1
         1         1         1         1         1
         1         1         1         1         1
         1         1         1         1         1
         1         1         1         1         1
         1         1         1         1         1
         1         1         1         1         1
         1         1         1         1         1
         1         1         1         1         1
         1         1         1         1         1
         1         1         1         1         1
         1         1         1         1         1
         1         1         1         1         1
         1         1         1         1         1
         1         1         1         1         1
         1         1         1         1         1
         1         1         1         1         1
         1         1         1         1         1
         1         1         1         1         1
         1         1         1         1         1
         1         1         1         1         1
         1         1         1         1         1
         1         1         1         1         1
         1         1         1         1         1
         1         1         1         1         1
         1         1         1         1         1
         1         1         1         1         1
         1         1         1         1         1
         1         1         1         1         1
         1         1         1         1         1
         1         1         1         1         1
         1         1         1         1         1
         1         1         1         1         1
         1         1         1         1         1
         1         1         1         1         1
         1         1         1         1         1
         1         1         1         1         1
         1         1         1         1         1
         1         1         1         1         1
         1         1         1         1         1
         1         1         1         1         1
         1         1         1         1         1
         1         1         1         1         1
         1         1         1         1         1
         1         1         1         1         1
         1         1         1         1         1
         1         1         1         1         1
        -1        -1        -1        -1        -1
        13         1             (5I10)        -1 #ibound layer 8
         1         1         1         1         1
         1         1         1         1         1
         1         1         1         1         1
         1         1         1         1         1
         1         1         1         1         1
         1         1         1         1         1
         1         1         1         1         1
         1         1         1         1         1
         1         1         1         1         1
         1         1         1         1         1
         1         1         1         1         1
         1         1         1         1         1
         1         1         1         1         1
         1         1         1         1         1
         1         1         1         1         1
         1         1         1         1         1
         1         1         1         1         1
         1         1         1         1         1
         1         1         1         1         1
         1         1         1         1         1
         1         1         1         1         1
         1         1         1         1         1
         1         1         1         1         1
         1         1         1         1         1
         1         1         1         1         1
         1         1         1         1         1
         1         1         1         1         1
         1         1         1         1         1
         1         1         1         1         1
         1         1         1         1         1
         1         1         1         1         1
         1         1         1         1         1
         1         1         1         1         1
         1         1         1         1         1
         1         1         1         1         1
         1         1         1         1         1
         1         1         1         1         1
         1         1         1         1         1
         1         1         1         1         1
         1         1         1         1         1
         1         1         1         1         1
         1         1         1         1         1
         1         1         1         1         1
         1         1         1         1         1
         1         1         1         1         1
         1         1         1         1         1
         1         1         1         1         1
         1         1         1         1         1
         1         1         1         1         1
        -1        -1        -1        -1        -1
        13         1             (5I10)        -1 #ibound layer 9
         1         1         1         1         1
         1         1         1         1         1
         1         1         1         1         1
         1         1         1         1         1
         1         1         1         1         1
         1         1         1         1         1
         1         1         1         1         1
         1         1         1         1         1
         1         1         1         1         1
         1         1         1         1         1
         1         1         1         1         1
         1         1         1         1         1
         1         1         1         1         1
         1         1         1         1         1
         1         1         1         1         1
         1         1         1         1         1
         1         1         1         1         1
         1         1         1         1         1
         1         1         1         1         1
         1         1         1         1         1
         1         1         1         1         1
         1         1         1         1         1
         1         1         1         1         1
         1         1         1         1         1
         1         1         1         1         1
         1         1         1         1         1
         1         1         1         1         1
         1         1         1         1         1
         1         1         1         1         1
         1         1         1         1         1
         1         1         1         1         1
         1         1         1         1         1
         1         1         1         1         1
         1         1         1         1         1
         1         1         1         1         1
         1         1         1         1         1
         1         1         1         1         1
         1         1         1         1         1
         1         1         1         1         1
         1         1         1         1         1
         1         1         1         1         1
         1         1         1         1         1
         1         1         1         1         1
         1         1         1         1         1
         1         1         1         1         1
         1         1         1         1         1
         1         1         1         1         1
         1         1         1         1         1
         1         1         1         1         1
        -1        -1        -1        -1        -1
        13         1             (5I10)        -1 #ibound layer 10
         1         1         1         1         1
         1         1         1         1         1
         1         1         1         1         1
         1         1         1         1         1
         1         1         1         1         1
         1         1         1         1         1
         1         1         1         1         1
         1         1         1         1         1
         1         1         1         1         1
         1         1         1         1         1
         1         1         1         1         1
         1         1         1         1         1
         1         1         1         1         1
         1         1         1         1         1
         1         1         1         1         1
         1         1         1         1         1
         1         1         1         1         1
         1         1         1         1         1
         1         1         1         1         1
         1         1         1         1         1
         1         1         1         1         1
         1         1         1         1         1
         1         1         1         1         1
         1         1         1         1         1
         1         1         1         1         1
         1         1         1         1         1
         1         1         1         1         1
         1         1         1         1         1
         1         1         1         1         1
         1         1         1         1         1
         1         1         1         1         1
         1         1         1         1         1
         1         1         1         1         1
         1         1         1         1         1
         1         1         1         1         1
         1         1         1         1         1
         1         1         1         1         1
         1         1         1         1         1
         1         1         1         1         1
         1         1         1         1         1
         1         1         1         1         1
         1         1         1         1         1
         1         1         1         1         1
         1         1         1         1         1
         1         1         1         1         1
         1         1         1         1         1
         1         1         1         1         1
         1         1         1         1         1
         1         1         1         1         1
        -1        -1        -1        -1        -1
   -999.99
         0         0                           -1 #strt layer 1
         0         0                           -1 #strt layer 2
         0         0                           -1 #strt layer 3
         0         0                           -1 #strt layer 4
         0         0                           -1 #strt layer 5
         0         0                           -1 #strt layer 6
         0         0                           -1 #strt layer 7
         0         0                           -1 #strt layer 8
         0         0                           -1 #strt layer 9
         0         0                           -1 #strt layer 10
