# DIS package for  SEAWAT, generated by Flopy.
        25       100        50         1         4         2
  0  0  0  0  0  0  0  0  0  0  0  0  0  0  0  0  0  0  0  0  0  0  0  0  0
         0        10                           -1 #delr
         0        10                           -1 #delc
         0         1                           -1 #model_top
         0        -3                           -1 #botm layer 1
         0        -7                           -1 #botm layer 2
         0       -11                           -1 #botm layer 3
         0       -15                           -1 #botm layer 4
         0       -19                           -1 #botm layer 5
         0       -23                           -1 #botm layer 6
         0       -27                           -1 #botm layer 7
         0       -31                           -1 #botm layer 8
         0       -35                           -1 #botm layer 9
         0       -39                           -1 #botm layer 10
         0       -43                           -1 #botm layer 11
         0       -47                           -1 #botm layer 12
         0       -51                           -1 #botm layer 13
         0       -55                           -1 #botm layer 14
         0       -59                           -1 #botm layer 15
         0       -63                           -1 #botm layer 16
         0       -67                           -1 #botm layer 17
         0       -71                           -1 #botm layer 18
         0       -75                           -1 #botm layer 19
         0       -79                           -1 #botm layer 20
         0       -83                           -1 #botm layer 21
         0       -87                           -1 #botm layer 22
         0       -91                           -1 #botm layer 23
         0       -95                           -1 #botm layer 24
         0       -99                           -1 #botm layer 25
      1.500000            15  1.000000  SS 
