# LPF package for  SEAWAT, generated by Flopy.
        53    -1E+30         0  
         0         0         0         0         0         0         0         0         0         0         0         0         0         0         0         0         0         0         0         0         0         0         0         0         0
         0         0         0         0         0         0         0         0         0         0         0         0         0         0         0         0         0         0         0         0         0         0         0         0         0
   1.000000E+00   1.000000E+00   1.000000E+00   1.000000E+00   1.000000E+00   1.000000E+00   1.000000E+00   1.000000E+00   1.000000E+00   1.000000E+00   1.000000E+00   1.000000E+00   1.000000E+00   1.000000E+00   1.000000E+00   1.000000E+00   1.000000E+00   1.000000E+00   1.000000E+00   1.000000E+00   1.000000E+00   1.000000E+00   1.000000E+00   1.000000E+00   1.000000E+00
         0         0         0         0         0         0         0         0         0         0         0         0         0         0         0         0         0         0         0         0         0         0         0         0         0
         0         0         0         0         0         0         0         0         0         0         0         0         0         0         0         0         0         0         0         0         0         0         0         0         0
         0       864                           -1 #hk layer 1
         0       864                           -1 #vka1
         0       864                           -1 #hk layer 2
         0       864                           -1 #vka2
         0       864                           -1 #hk layer 3
         0       864                           -1 #vka3
         0       864                           -1 #hk layer 4
         0       864                           -1 #vka4
         0       864                           -1 #hk layer 5
         0       864                           -1 #vka5
         0       864                           -1 #hk layer 6
         0       864                           -1 #vka6
         0       864                           -1 #hk layer 7
         0       864                           -1 #vka7
         0       864                           -1 #hk layer 8
         0       864                           -1 #vka8
         0       864                           -1 #hk layer 9
         0       864                           -1 #vka9
         0       864                           -1 #hk layer 10
         0       864                           -1 #vka10
         0       864                           -1 #hk layer 11
         0       864                           -1 #vka11
         0       864                           -1 #hk layer 12
         0       864                           -1 #vka12
         0       864                           -1 #hk layer 13
         0       864                           -1 #vka13
         0       864                           -1 #hk layer 14
         0       864                           -1 #vka14
         0       864                           -1 #hk layer 15
         0       864                           -1 #vka15
         0       864                           -1 #hk layer 16
         0       864                           -1 #vka16
         0       864                           -1 #hk layer 17
         0       864                           -1 #vka17
         0       864                           -1 #hk layer 18
         0       864                           -1 #vka18
         0       864                           -1 #hk layer 19
         0       864                           -1 #vka19
         0       864                           -1 #hk layer 20
         0       864                           -1 #vka20
         0       864                           -1 #hk layer 21
         0       864                           -1 #vka21
         0       864                           -1 #hk layer 22
         0       864                           -1 #vka22
         0       864                           -1 #hk layer 23
         0       864                           -1 #vka23
         0       864                           -1 #hk layer 24
         0       864                           -1 #vka24
         0       864                           -1 #hk layer 25
         0       864                           -1 #vka25
