# Name file for MT3DMS, generated by Flopy version 3.2.12.
LIST              16  D:/Chelsea/Projects/DelawareStream/FloPy/Tutorial02wMT3DMS3/Tutorial02wMT3DMS3_mt.list
FTL               10  mt3d_link.ftl 
BTN               31  D:/Chelsea/Projects/DelawareStream/FloPy/Tutorial02wMT3DMS3/Tutorial02wMT3DMS3_mt.btn 
ADV               32  D:/Chelsea/Projects/DelawareStream/FloPy/Tutorial02wMT3DMS3/Tutorial02wMT3DMS3_mt.adv 
DSP               33  D:/Chelsea/Projects/DelawareStream/FloPy/Tutorial02wMT3DMS3/Tutorial02wMT3DMS3_mt.dsp 
SSM               34  D:/Chelsea/Projects/DelawareStream/FloPy/Tutorial02wMT3DMS3/Tutorial02wMT3DMS3_mt.ssm 
RCT               36  D:/Chelsea/Projects/DelawareStream/FloPy/Tutorial02wMT3DMS3/Tutorial02wMT3DMS3_mt.rct 
GCG               35  D:/Chelsea/Projects/DelawareStream/FloPy/Tutorial02wMT3DMS3/Tutorial02wMT3DMS3_mt.gcg 
