# Name file for MODFLOW-2005, generated by Flopy version 3.2.12.
#xll:0; yll:0; rotation:0; proj4_str:None; units:meters; lenuni:2;  ;start_datetime:1-1-1970
LIST               2  D:/Chelsea/Projects/DelawareStream/FloPy/Tutorial02wMT3DMS3/Tutorial02wMT3DMS3.list
DIS               11  D:/Chelsea/Projects/DelawareStream/FloPy/Tutorial02wMT3DMS3/Tutorial02wMT3DMS3.dis 
BAS6              13  D:/Chelsea/Projects/DelawareStream/FloPy/Tutorial02wMT3DMS3/Tutorial02wMT3DMS3.bas 
LPF               15  D:/Chelsea/Projects/DelawareStream/FloPy/Tutorial02wMT3DMS3/Tutorial02wMT3DMS3.lpf 
WEL               20  D:/Chelsea/Projects/DelawareStream/FloPy/Tutorial02wMT3DMS3/Tutorial02wMT3DMS3.wel 
RCH               19  D:/Chelsea/Projects/DelawareStream/FloPy/Tutorial02wMT3DMS3/Tutorial02wMT3DMS3.rch 
PCG               27  D:/Chelsea/Projects/DelawareStream/FloPy/Tutorial02wMT3DMS3/Tutorial02wMT3DMS3.pcg 
LMT6              30  D:/Chelsea/Projects/DelawareStream/FloPy/Tutorial02wMT3DMS3/Tutorial02wMT3DMS3.lmt6 
