# Name file for MT3DMS, generated by Flopy version 3.2.12.
LIST              16  Tutorial02wMT3DMS.list
FTL               10  mt3d_link.ftl 
BTN               31  Tutorial02wMT3DMS.btn 
ADV               32  Tutorial02wMT3DMS.adv 
DSP               33  Tutorial02wMT3DMS.dsp 
SSM               34  Tutorial02wMT3DMS.ssm 
GCG               35  Tutorial02wMT3DMS.gcg 
