# WEL package for  MODFLOW-2005, generated by Flopy.
         1         0 
         1         0 # stress period 1
         2         6         6             0.0
         1         0 # stress period 2
         2         6         6           100.0
         1         0 # stress period 3
         2         6         6            60.0
