# Name file for MT3DMS, generated by Flopy version 3.2.12.
LIST              16  BoxModel.list
FTL               10  mt3d_link.ftl 
BTN               31  BoxModel.btn 
ADV               32  BoxModel.adv 
DSP               33  BoxModel.dsp 
SSM               34  BoxModel.ssm 
GCG               35  BoxModel.gcg 
